Version 4
SHEET 1 2664 1248
WIRE 80 -128 80 -144
WIRE 336 -96 336 -112
WIRE 80 -32 80 -48
WIRE 80 -32 -32 -32
WIRE 224 -32 80 -32
WIRE 336 0 336 -16
WIRE -32 16 -32 -32
WIRE 80 16 80 -32
WIRE -32 128 -32 80
WIRE 80 128 80 96
WIRE 80 128 -32 128
WIRE 432 128 288 128
WIRE 640 128 512 128
WIRE 80 144 80 128
WIRE 288 256 288 128
WIRE 432 256 288 256
WIRE 640 256 640 128
WIRE 640 256 496 256
WIRE 1936 320 1904 320
WIRE 2032 320 2016 320
WIRE 1776 336 1776 272
WIRE 432 368 432 352
WIRE 1728 368 1664 368
WIRE 1840 368 1840 320
WIRE -32 384 -208 384
WIRE 96 384 -32 384
WIRE 288 384 288 256
WIRE 288 384 96 384
WIRE 400 384 288 384
WIRE 1952 384 1856 384
WIRE 2112 384 2016 384
WIRE 640 400 640 256
WIRE 640 400 464 400
WIRE 688 400 640 400
WIRE 944 400 848 400
WIRE 1040 400 1008 400
WIRE 1136 400 1040 400
WIRE 1728 400 1520 400
WIRE 2112 400 2112 384
WIRE 400 416 384 416
WIRE 1040 432 1040 400
WIRE -32 448 -32 384
WIRE 96 448 96 384
WIRE 1808 448 1808 416
WIRE -208 464 -208 384
WIRE 432 464 432 432
WIRE 1840 464 1840 400
WIRE 2032 464 2032 320
WIRE 2032 464 1840 464
WIRE 2112 512 2112 480
WIRE 640 528 640 400
WIRE 1808 528 1808 512
WIRE 1040 544 1040 512
WIRE 1776 592 1776 432
WIRE -208 608 -208 544
WIRE -208 608 -256 608
WIRE -32 608 -32 512
WIRE -32 608 -208 608
WIRE 96 608 96 528
WIRE 96 608 -32 608
WIRE 640 624 640 608
WIRE 640 624 608 624
WIRE -32 640 -32 608
WIRE 640 640 640 624
WIRE -32 736 -32 704
WIRE 640 736 640 704
FLAG 80 -144 VCC
FLAG 432 352 VCC
FLAG 688 400 OUT
FLAG 432 464 0
FLAG 848 400 OUT
FLAG 1136 400 out_speaker
FLAG 224 -32 Vbias
FLAG -32 736 0
FLAG 336 0 0
FLAG 336 -112 vcc
FLAG 80 144 0
FLAG 1776 272 VCC
FLAG 1776 592 0
FLAG 1808 528 0
FLAG 2112 512 0
FLAG 1664 368 0
FLAG 1520 400 OUT_TIA
FLAG 1040 544 0
FLAG 640 736 0
FLAG 608 624 feedback_input
FLAG -256 608 feedback_input
FLAG 384 416 Vbias
SYMBOL cap 496 240 R90
WINDOW 0 0 32 VBottom 2
WINDOW 3 32 32 VTop 2
SYMATTR InstName Cf
SYMATTR Value 1E-12
SYMBOL res 528 112 R90
WINDOW 0 0 56 VBottom 2
WINDOW 3 32 56 VTop 2
SYMATTR InstName Rf
SYMATTR Value 1E6
SYMBOL cap -48 448 R0
SYMATTR InstName Cd
SYMATTR Value 70E-12
SYMBOL res 80 432 R0
SYMATTR InstName Rsh
SYMATTR Value 5E9
SYMBOL Opamps\\AD823 432 336 R0
SYMATTR InstName U1
SYMBOL res 64 -144 R0
SYMATTR InstName R1
SYMATTR Value 10k
SYMBOL res 96 112 R180
WINDOW 0 36 76 Left 2
WINDOW 3 36 40 Left 2
SYMATTR InstName R2
SYMATTR Value 2K
SYMBOL cap -48 16 R0
SYMATTR InstName C2
SYMATTR Value 1µ
SYMBOL polcap 1008 384 R90
WINDOW 0 0 32 VBottom 2
WINDOW 3 32 32 VTop 2
SYMATTR InstName C4
SYMATTR Value 10µ
SYMATTR Description Capacitor
SYMATTR Type cap
SYMATTR SpiceLine V=25 Irms=27m Rser=2.22517 Lser=834.91p
SYMBOL current -208 464 R0
WINDOW 123 24 108 Left 2
WINDOW 39 0 0 Left 2
SYMATTR Value2 AC 1
SYMATTR InstName Ip
SYMATTR Value SINE(0.5E-6 0.05E-6 1k 0 0 0 10)
SYMBOL voltage 336 -112 R0
WINDOW 123 0 0 Left 0
WINDOW 39 0 0 Left 0
SYMATTR InstName V1
SYMATTR Value 9
SYMBOL LM386 1792 384 R0
SYMATTR InstName U2
SYMBOL cap 1792 448 R0
SYMATTR InstName C5
SYMATTR Value 100µ
SYMBOL cap 1904 304 R90
WINDOW 0 0 32 VBottom 2
WINDOW 3 32 32 VTop 2
SYMATTR InstName C6
SYMATTR Value 10µ
SYMBOL res 2032 304 R90
WINDOW 0 0 56 VBottom 2
WINDOW 3 32 56 VTop 2
SYMATTR InstName R6
SYMATTR Value 1
SYMBOL res 2096 384 R0
SYMATTR InstName R5
SYMATTR Value 8
SYMBOL res 1024 416 R0
SYMATTR InstName R4
SYMATTR Value 100K
SYMBOL res 624 512 R0
SYMATTR InstName R3
SYMATTR Value 100k
SYMBOL cap 624 640 R0
SYMATTR InstName C3
SYMATTR Value 10µ
SYMBOL cap -48 640 R0
SYMATTR InstName C1
SYMATTR Value 0.1µ
SYMBOL cap 2016 368 R90
WINDOW 0 0 32 VBottom 2
WINDOW 3 32 32 VTop 2
SYMATTR InstName C7
SYMATTR Value 3300µ
TEXT -144 280 Left 4 ;Photodiode
TEXT -1248 944 Left 2 ;f_corner_bias= 95 Hz\nV_bias = 1.5 V
TEXT 456 32 Left 4 ;TIA
TEXT 368 -184 Left 2 !.ac dec 10 0.1 1MEG
TEXT 368 -160 Left 2 !;tran 1
TEXT 1736 120 Left 2 ;LM386
TEXT 32 208 Left 2 ;BIAS
RECTANGLE Normal 208 688 -240 320 2
RECTANGLE Normal 768 496 240 64 2
RECTANGLE Normal 2224 640 1328 144 2
RECTANGLE Normal 160 176 -48 -192 2
